data_image0
_chemical_formula_structural       NaKNaKZrSnO6
_chemical_formula_sum              "Na2 K2 Zr1 Sn1 O6"
_cell_length_a       6.510003680390335
_cell_length_b       7.013580215015349
_cell_length_c       6.510003680390335
_cell_angle_alpha    81.63316099598094
_cell_angle_beta     54.73032055262999
_cell_angle_gamma    81.63316099598094

_space_group_name_H-M_alt    "P 1"
_space_group_IT_number       1

loop_
  _space_group_symop_operation_xyz
  'x, y, z'

loop_
  _atom_site_type_symbol
  _atom_site_label
  _atom_site_symmetry_multiplicity
  _atom_site_fract_x
  _atom_site_fract_y
  _atom_site_fract_z
  _atom_site_occupancy
  Na  Na1       1.0  0.9415880228403446  0.2650679821968521  0.9415880228403446  1.0000
  K   K1        1.0  0.35410741380061805  0.5654525116327739  0.8564396678228533  1.0000
  Na  Na2       1.0  0.5419330399454327  0.011363107307327076  0.5419330399454328  1.0000
  K   K2        1.0  0.8564396678228532  0.5654525116327739  0.35410741380061805  1.0000
  Zr  Zr1       1.0  0.2513711411386896  0.02976449685968777  0.25137114113868964  1.0000
  Sn  Sn1       1.0  0.82799376970636  0.869315525818454  0.8279937697063601  1.0000
  O   O1        1.0  0.4559260073567268  0.869852073843288  0.9343084886921191  1.0000
  O   O2        1.0  0.6332297296117076  0.03825449893794084  0.13835336070114065  1.0000
  O   O3        1.0  0.14568073302051968  0.2703052001749612  0.1456807330205197  1.0000
  O   O4        1.0  0.9190686255379257  0.6070655187634847  0.9190686255379257  1.0000
  O   O5        1.0  0.9343084886921192  0.869852073843288  0.4559260073567267  1.0000
  O   O6        1.0  0.13835336070677973  0.03825449893874118  0.6332297295937166  1.0000
