data_image0
_chemical_formula_structural       K4SnZrO6
_chemical_formula_sum              "K4 Sn1 Zr1 O6"
_cell_length_a       6.695584544289125
_cell_length_b       6.695584544289125
_cell_length_c       6.695584544289125
_cell_angle_alpha    76.87708306813613
_cell_angle_beta     76.87708306813613
_cell_angle_gamma    76.87708306813613

_space_group_name_H-M_alt    "P 1"
_space_group_IT_number       1

loop_
  _space_group_symop_operation_xyz
  'x, y, z'

loop_
  _atom_site_type_symbol
  _atom_site_label
  _atom_site_symmetry_multiplicity
  _atom_site_fract_x
  _atom_site_fract_y
  _atom_site_fract_z
  _atom_site_occupancy
  K   K1        1.0  0.009279975049235915  0.009279975049235913  0.009279975049235915  1.0000
  K   K2        1.0  0.3835917790965577  0.3835917790965576  0.9893616483399738  1.0000
  K   K3        1.0  0.3835917790965576  0.9893616483399738  0.3835917790965577  1.0000
  K   K4        1.0  0.9893616483399738  0.3835917790965576  0.3835917790965577  1.0000
  Sn  Sn1       1.0  0.4577614276330316  0.4577614276330315  0.4577614276330315  1.0000
  Zr  Zr1       1.0  0.6858838051673541  0.685883805167354  0.685883805167354  1.0000
  O   O1        1.0  0.6660997797833276  0.2810065606708296  0.2810065606708295  1.0000
  O   O2        1.0  0.3901537186121377  0.7361314829772394  0.7361314829772394  1.0000
  O   O3        1.0  0.28100656067082963  0.6660997797833275  0.2810065606708296  1.0000
  O   O4        1.0  0.7361314829772394  0.39015371861213766  0.7361314829772394  1.0000
  O   O5        1.0  0.2810065606708296  0.2810065606708296  0.6660997797833276  1.0000
  O   O6        1.0  0.7361314829787733  0.7361314829787733  0.390153718596684  1.0000
